/*--------------------------------*- C++ -*----------------------------------*\
| =========                 |                                                 |
| \\      /  F ield         | OpenFOAM: The Open Source CFD Toolbox           |
|  \\    /   O peration     | Version:  v1812                                 |
|   \\  /    A nd           | Web:      www.OpenFOAM.com                      |
|    \\/     M anipulation  |                                                 |
\*---------------------------------------------------------------------------*/
FoamFile
{
    version     2.0;
    format      ascii;
    class       polyBoundaryMesh;
    location    "constant/polyMesh";
    object      boundary;
}
// * * * * * * * * * * * * * * * * * * * * * * * * * * * * * * * * * * * * * //

6
(
    symmetry1
    {
        type            symmetry;
        inGroups        1(symmetry);
        nFaces          1008;
        startFace       1951;
    }
    symmetry2
    {
        type            symmetry;
        inGroups        1(symmetry);
        nFaces          1008;
        startFace       2959;
    }
    wing
    {
        type            wall;
        inGroups        1(wall);
        nFaces          31;
        startFace       3967;
    }
    inout
    {
        type            patch;
        nFaces          33;
        startFace       3998;
    }
    procBoundary3to1
    {
        type            processor;
        inGroups        1(processor);
        nFaces          32;
        startFace       4031;
        matchTolerance  0.0001;
        transform       unknown;
        myProcNo        3;
        neighbProcNo    1;
    }
    procBoundary3to2
    {
        type            processor;
        inGroups        1(processor);
        nFaces          34;
        startFace       4063;
        matchTolerance  0.0001;
        transform       unknown;
        myProcNo        3;
        neighbProcNo    2;
    }
)

// ************************************************************************* //
